
This summary information was generated by AeroDyn on 28-Feb-2023 at 17:43:08.

======  General Options  ============================================================================
            0  WakeMod        - Type of wake/induction model: steady
            1  AFAeroMod      - Type of blade airfoil aerodynamics model: steady
            0  TwrPotent      - Type of tower influence on wind based on potential flow around the tower: none
            0  TwrShadow      - Type of tower influence on wind based on downstream tower shadow: none
            T  TwrAero        - Calculate tower aerodynamic loads? Yes
======  Outputs  ====================================================================================
            0  NBlOuts        - Number of blade nodes selected for output
            0  NTwOuts        - Number of tower nodes selected for output

               Requested Output Channels:
                Col   Parameter            Units               
                ---   ---------------      ---------------     
                  0   Time                 (s)                 


               Requested Output Channels at each blade station:
                Col   Parameter            Units               
                ---   ---------------      ---------------     
                  1   Fx                   (N/m)               
                  2   Ft                   (N/m)               
                  3   Fn                   (N/m)               
                  4   Fy                   (N/m)               
                  5   Vx                   (m/s)               
                  6   alpha                (deg)               
                  7   Cl                   (-)                 
